8
0.0
C   	    0.00000	    0.00000	    0.00000
H   	    0.00000	   -0.95106	   -0.30902
H   	    0.00000	   -0.58779	    0.80902
H   	    0.00000	    0.58779	    0.80902
H   	    0.00000	    0.95106	   -0.30902
H   	    0.00000	    0.00000	   -1.00000
H   	   -1.00000	    0.00000	    0.00000
H   	    1.00000	    0.00000	    0.00000
